Wed Nov 28 18:52:24 EST 2012 ============# EM:: of Threads Requested 16


* . * . * . * . * . * . * . * . * . * . * . * . * . * . * . * . * . * . * . * . 
     PROGRAM GLOBAL_CHGRES HAS BEGUN. COMPILED 1999253.56     ORG: NP23
     STARTING DATE-TIME  NOV 28,2012  18:52:24.699  333  WEN   2456260


 &NAMCHG
 JCAP    =         574,
 LEVS    =           0,
 NTRAC   =           0,
 LONB    =        1760,
 LATB    =         880,
 LONBI   =           0,
 LATBI   =           0,
 IDVC    =           0,
 IDVM    =           0,
 IDSL    =           0,
 IGEN    =           0,
 MGG     =           0,
 MQUICK  =           0,
 IDVT    =           0,
 NCLDT   =           0,
 LATCH   =           6,
 LSOIL   =           2,
 IVSSFC  =      200004,
 IVSSIG  =           0,
 NVCOORD =           0,
 OUTTYP  =           2,
 IDRT    =           4,
 RI      = 21*0.000000000000000E+000  ,
 CPI     = 21*0.000000000000000E+000  ,
 IALB    =           0,
 CHGQ0   =           0,
 USE_UFO = F
 /
 CHGRES INPUT:  SPECTRAL SIGIO SIGMA FILE 
 CHGRES OUTPUT: SIGIO SIGMA FILE
  pdryinia=   98.26409    
CHANGE SIGMA FILE RESOLUTION FROM  574 WAVES,   64 LEVELS, AND    3 TRACERS
                                   IVS=198410 IDVC= 2 NVCOORD= 2  IDVM= 0
                               TO  574 WAVES,   64 LEVELS, AND    3 TRACERS.
                                   IVS=198410 IDVC= 2 NVCOORD= 2  IDVM= 0
  USING A GAUSSIAN TRANSFORM GRID OF 1760 X  880
  NEW OROGRAPHY READ IN
  NEW MODEL LEVELS COPIED FROM OLD
 omega time=   28.0000000000000     
  sigheado%pdryini2=  0.0000000E+00


     ENDING DATE-TIME    NOV 28,2012  18:54:24.802  333  WEN   2456260
* . * . * . * . * . * . * . * . * . * . * . * . * . * . * . * . * . * . * . * . 
     1     1       0.075       0.075       0.075
     2     1       1.225       1.225       1.225
     3     1       0.065       0.065       0.065
     4     1       0.000       0.000       0.000
     5    74      24.532       0.175       0.640
     6    74       0.016       0.000       0.001
     7    74      43.539       0.257       0.663
     8    74      14.974       0.062       0.252
     9    74      34.901       0.295       0.598
    10     1       0.742       0.742       0.742
    11     0       0.000       0.000       0.000
    12     0       0.000       0.000       0.000
    13     0       0.000       0.000       0.000
    14     0       0.000       0.000       0.000
    15     1       0.029       0.029       0.029
    16     1       0.000       0.000       0.000
    17     0       0.000       0.000       0.000
    18     0       0.000       0.000       0.000
    19     0       0.000       0.000       0.000
    20     0       0.000       0.000       0.000
    21     0       0.000       0.000       0.000
    22     0       0.000       0.000       0.000
    23     0       0.000       0.000       0.000
    24     0       0.000       0.000       0.000
    25     0       0.000       0.000       0.000
    26     0       0.000       0.000       0.000
    27     0       0.000       0.000       0.000
    28     0       0.000       0.000       0.000
    29     0       0.000       0.000       0.000
    30     0       0.000       0.000       0.000
*****************RESOURCE STATISTICS*******************************
The total amount of wall time                        = 120.103023
The total amount of time in user mode                = 1608.274505
The total amount of time in sys mode                 = 39.832944
The maximum resident set size (KB)                   = 2982948
Number of page faults without I/O activity           = 11566
Number of page faults with I/O activity              = 0
Number of times filesystem performed INPUT           = 0
Number of times filesystem performed OUTPUT          = 0
Number of Voluntary Context Switches                 = 7104
Number of InVoluntary Context Switches               = 260138
*****************END OF RESOURCE STATISTICS*************************

Wed Nov 28 18:54:24 EST 2012 ====AFTER========# EM:: of Threads Requested 16
Wed Nov 28 18:54:25 EST 2012 ============# EM:: of Threads Requested 12


* . * . * . * . * . * . * . * . * . * . * . * . * . * . * . * . * . * . * . * . 
     PROGRAM GLOBAL_CHGRES HAS BEGUN. COMPILED 1999253.56     ORG: NP23
     STARTING DATE-TIME  NOV 28,2012  18:54:25.034  333  WEN   2456260


 &NAMCHG
 JCAP    =         574,
 LEVS    =           0,
 NTRAC   =           0,
 LONB    =        1760,
 LATB    =         880,
 LONBI   =           0,
 LATBI   =           0,
 IDVC    =           0,
 IDVM    =           0,
 IDSL    =           0,
 IGEN    =           0,
 MGG     =           0,
 MQUICK  =           0,
 IDVT    =           0,
 NCLDT   =           0,
 LATCH   =           6,
 LSOIL   =           2,
 IVSSFC  =      200004,
 IVSSIG  =           0,
 NVCOORD =           0,
 OUTTYP  =           2,
 IDRT    =           4,
 RI      = 21*0.000000000000000E+000  ,
 CPI     = 21*0.000000000000000E+000  ,
 IALB    =           0,
 CHGQ0   =           0,
 USE_UFO = F
 /
 CHGRES INPUT:  SPECTRAL SIGIO SIGMA FILE 
 CHGRES OUTPUT: SIGIO SIGMA FILE
  pdryinia=   98.26409    
CHANGE SIGMA FILE RESOLUTION FROM  574 WAVES,   64 LEVELS, AND    3 TRACERS
                                   IVS=198410 IDVC= 2 NVCOORD= 2  IDVM= 0
                               TO  574 WAVES,   64 LEVELS, AND    3 TRACERS.
                                   IVS=198410 IDVC= 2 NVCOORD= 2  IDVM= 0
  USING A GAUSSIAN TRANSFORM GRID OF 1760 X  880
  NEW OROGRAPHY READ IN
  NEW MODEL LEVELS COPIED FROM OLD
 omega time=   31.0000000000000     
  sigheado%pdryini2=  0.0000000E+00


     ENDING DATE-TIME    NOV 28,2012  18:56:25.940  333  WEN   2456260
* . * . * . * . * . * . * . * . * . * . * . * . * . * . * . * . * . * . * . * . 
     1     1       0.023       0.023       0.023
     2     1       1.146       1.146       1.146
     3     1       0.036       0.036       0.036
     4     1       0.000       0.000       0.000
     5    74      25.202       0.167       0.672
     6    74       0.019       0.000       0.001
     7    74      46.347       0.314       0.721
     8    74      15.775       0.079       0.283
     9    74      31.593       0.235       0.448
    10     1       0.735       0.735       0.735
    11     0       0.000       0.000       0.000
    12     0       0.000       0.000       0.000
    13     0       0.000       0.000       0.000
    14     0       0.000       0.000       0.000
    15     1       0.020       0.020       0.020
    16     1       0.000       0.000       0.000
    17     0       0.000       0.000       0.000
    18     0       0.000       0.000       0.000
    19     0       0.000       0.000       0.000
    20     0       0.000       0.000       0.000
    21     0       0.000       0.000       0.000
    22     0       0.000       0.000       0.000
    23     0       0.000       0.000       0.000
    24     0       0.000       0.000       0.000
    25     0       0.000       0.000       0.000
    26     0       0.000       0.000       0.000
    27     0       0.000       0.000       0.000
    28     0       0.000       0.000       0.000
    29     0       0.000       0.000       0.000
    30     0       0.000       0.000       0.000
*****************RESOURCE STATISTICS*******************************
The total amount of wall time                        = 120.905863
The total amount of time in user mode                = 1188.062387
The total amount of time in sys mode                 = 24.549267
The maximum resident set size (KB)                   = 2920072
Number of page faults without I/O activity           = 10603
Number of page faults with I/O activity              = 0
Number of times filesystem performed INPUT           = 0
Number of times filesystem performed OUTPUT          = 0
Number of Voluntary Context Switches                 = 4796
Number of InVoluntary Context Switches               = 62005
*****************END OF RESOURCE STATISTICS*************************

Wed Nov 28 18:56:26 EST 2012 ====AFTER========# EM:: of Threads Requested 12
Wed Nov 28 18:56:26 EST 2012 ============# EM:: of Threads Requested 10


* . * . * . * . * . * . * . * . * . * . * . * . * . * . * . * . * . * . * . * . 
     PROGRAM GLOBAL_CHGRES HAS BEGUN. COMPILED 1999253.56     ORG: NP23
     STARTING DATE-TIME  NOV 28,2012  18:56:26.158  333  WEN   2456260


 &NAMCHG
 JCAP    =         574,
 LEVS    =           0,
 NTRAC   =           0,
 LONB    =        1760,
 LATB    =         880,
 LONBI   =           0,
 LATBI   =           0,
 IDVC    =           0,
 IDVM    =           0,
 IDSL    =           0,
 IGEN    =           0,
 MGG     =           0,
 MQUICK  =           0,
 IDVT    =           0,
 NCLDT   =           0,
 LATCH   =           6,
 LSOIL   =           2,
 IVSSFC  =      200004,
 IVSSIG  =           0,
 NVCOORD =           0,
 OUTTYP  =           2,
 IDRT    =           4,
 RI      = 21*0.000000000000000E+000  ,
 CPI     = 21*0.000000000000000E+000  ,
 IALB    =           0,
 CHGQ0   =           0,
 USE_UFO = F
 /
 CHGRES INPUT:  SPECTRAL SIGIO SIGMA FILE 
 CHGRES OUTPUT: SIGIO SIGMA FILE
  pdryinia=   98.26409    
CHANGE SIGMA FILE RESOLUTION FROM  574 WAVES,   64 LEVELS, AND    3 TRACERS
                                   IVS=198410 IDVC= 2 NVCOORD= 2  IDVM= 0
                               TO  574 WAVES,   64 LEVELS, AND    3 TRACERS.
                                   IVS=198410 IDVC= 2 NVCOORD= 2  IDVM= 0
  USING A GAUSSIAN TRANSFORM GRID OF 1760 X  880
  NEW OROGRAPHY READ IN
  NEW MODEL LEVELS COPIED FROM OLD
 omega time=   31.0000000000000     
  sigheado%pdryini2=  0.0000000E+00


     ENDING DATE-TIME    NOV 28,2012  18:58:34.462  333  WEN   2456260
* . * . * . * . * . * . * . * . * . * . * . * . * . * . * . * . * . * . * . * . 
     1     1       0.023       0.023       0.023
     2     1       1.142       1.142       1.142
     3     1       0.036       0.036       0.036
     4     1       0.000       0.000       0.000
     5    74      27.954       0.183       0.720
     6    74       0.025       0.000       0.001
     7    74      47.196       0.262       0.765
     8    74      16.251       0.058       0.282
     9    74      34.895       0.268       0.525
    10     1       0.733       0.733       0.733
    11     0       0.000       0.000       0.000
    12     0       0.000       0.000       0.000
    13     0       0.000       0.000       0.000
    14     0       0.000       0.000       0.000
    15     1       0.038       0.038       0.038
    16     1       0.000       0.000       0.000
    17     0       0.000       0.000       0.000
    18     0       0.000       0.000       0.000
    19     0       0.000       0.000       0.000
    20     0       0.000       0.000       0.000
    21     0       0.000       0.000       0.000
    22     0       0.000       0.000       0.000
    23     0       0.000       0.000       0.000
    24     0       0.000       0.000       0.000
    25     0       0.000       0.000       0.000
    26     0       0.000       0.000       0.000
    27     0       0.000       0.000       0.000
    28     0       0.000       0.000       0.000
    29     0       0.000       0.000       0.000
    30     0       0.000       0.000       0.000
*****************RESOURCE STATISTICS*******************************
The total amount of wall time                        = 128.303801
The total amount of time in user mode                = 1064.772130
The total amount of time in sys mode                 = 18.814139
The maximum resident set size (KB)                   = 2885764
Number of page faults without I/O activity           = 10733
Number of page faults with I/O activity              = 0
Number of times filesystem performed INPUT           = 0
Number of times filesystem performed OUTPUT          = 0
Number of Voluntary Context Switches                 = 4157
Number of InVoluntary Context Switches               = 27289
*****************END OF RESOURCE STATISTICS*************************

Wed Nov 28 18:58:34 EST 2012 ====AFTER========# EM:: of Threads Requested 10
Wed Nov 28 18:58:35 EST 2012 ============# EM:: of Threads Requested 8


* . * . * . * . * . * . * . * . * . * . * . * . * . * . * . * . * . * . * . * . 
     PROGRAM GLOBAL_CHGRES HAS BEGUN. COMPILED 1999253.56     ORG: NP23
     STARTING DATE-TIME  NOV 28,2012  18:58:35.011  333  WEN   2456260


 &NAMCHG
 JCAP    =         574,
 LEVS    =           0,
 NTRAC   =           0,
 LONB    =        1760,
 LATB    =         880,
 LONBI   =           0,
 LATBI   =           0,
 IDVC    =           0,
 IDVM    =           0,
 IDSL    =           0,
 IGEN    =           0,
 MGG     =           0,
 MQUICK  =           0,
 IDVT    =           0,
 NCLDT   =           0,
 LATCH   =           6,
 LSOIL   =           2,
 IVSSFC  =      200004,
 IVSSIG  =           0,
 NVCOORD =           0,
 OUTTYP  =           2,
 IDRT    =           4,
 RI      = 21*0.000000000000000E+000  ,
 CPI     = 21*0.000000000000000E+000  ,
 IALB    =           0,
 CHGQ0   =           0,
 USE_UFO = F
 /
 CHGRES INPUT:  SPECTRAL SIGIO SIGMA FILE 
 CHGRES OUTPUT: SIGIO SIGMA FILE
  pdryinia=   98.26409    
CHANGE SIGMA FILE RESOLUTION FROM  574 WAVES,   64 LEVELS, AND    3 TRACERS
                                   IVS=198410 IDVC= 2 NVCOORD= 2  IDVM= 0
                               TO  574 WAVES,   64 LEVELS, AND    3 TRACERS.
                                   IVS=198410 IDVC= 2 NVCOORD= 2  IDVM= 0
  USING A GAUSSIAN TRANSFORM GRID OF 1760 X  880
  NEW OROGRAPHY READ IN
  NEW MODEL LEVELS COPIED FROM OLD
 omega time=   29.0000000000000     
  sigheado%pdryini2=  0.0000000E+00


     ENDING DATE-TIME    NOV 28,2012  19:00:37.163  333  WEN   2456260
* . * . * . * . * . * . * . * . * . * . * . * . * . * . * . * . * . * . * . * . 
     1     1       0.022       0.022       0.022
     2     1       1.139       1.139       1.139
     3     1       0.036       0.036       0.036
     4     1       0.000       0.000       0.000
     5    74      27.878       0.174       0.796
     6    74       0.016       0.000       0.001
     7    74      44.025       0.266       0.764
     8    74      14.135       0.058       0.267
     9    74      34.198       0.240       0.529
    10     1       0.692       0.692       0.692
    11     0       0.000       0.000       0.000
    12     0       0.000       0.000       0.000
    13     0       0.000       0.000       0.000
    14     0       0.000       0.000       0.000
    15     1       0.002       0.002       0.002
    16     1       0.000       0.000       0.000
    17     0       0.000       0.000       0.000
    18     0       0.000       0.000       0.000
    19     0       0.000       0.000       0.000
    20     0       0.000       0.000       0.000
    21     0       0.000       0.000       0.000
    22     0       0.000       0.000       0.000
    23     0       0.000       0.000       0.000
    24     0       0.000       0.000       0.000
    25     0       0.000       0.000       0.000
    26     0       0.000       0.000       0.000
    27     0       0.000       0.000       0.000
    28     0       0.000       0.000       0.000
    29     0       0.000       0.000       0.000
    30     0       0.000       0.000       0.000
*****************RESOURCE STATISTICS*******************************
The total amount of wall time                        = 122.151655
The total amount of time in user mode                = 854.870040
The total amount of time in sys mode                 = 10.525399
The maximum resident set size (KB)                   = 2854632
Number of page faults without I/O activity           = 8049
Number of page faults with I/O activity              = 0
Number of times filesystem performed INPUT           = 0
Number of times filesystem performed OUTPUT          = 0
Number of Voluntary Context Switches                 = 2967
Number of InVoluntary Context Switches               = 3683
*****************END OF RESOURCE STATISTICS*************************

Wed Nov 28 19:00:37 EST 2012 ====AFTER========# EM:: of Threads Requested 8
Wed Nov 28 19:00:37 EST 2012 ============# EM:: of Threads Requested 6


* . * . * . * . * . * . * . * . * . * . * . * . * . * . * . * . * . * . * . * . 
     PROGRAM GLOBAL_CHGRES HAS BEGUN. COMPILED 1999253.56     ORG: NP23
     STARTING DATE-TIME  NOV 28,2012  19:00:37.424  333  WEN   2456260


 &NAMCHG
 JCAP    =         574,
 LEVS    =           0,
 NTRAC   =           0,
 LONB    =        1760,
 LATB    =         880,
 LONBI   =           0,
 LATBI   =           0,
 IDVC    =           0,
 IDVM    =           0,
 IDSL    =           0,
 IGEN    =           0,
 MGG     =           0,
 MQUICK  =           0,
 IDVT    =           0,
 NCLDT   =           0,
 LATCH   =           6,
 LSOIL   =           2,
 IVSSFC  =      200004,
 IVSSIG  =           0,
 NVCOORD =           0,
 OUTTYP  =           2,
 IDRT    =           4,
 RI      = 21*0.000000000000000E+000  ,
 CPI     = 21*0.000000000000000E+000  ,
 IALB    =           0,
 CHGQ0   =           0,
 USE_UFO = F
 /
 CHGRES INPUT:  SPECTRAL SIGIO SIGMA FILE 
 CHGRES OUTPUT: SIGIO SIGMA FILE
  pdryinia=   98.26409    
CHANGE SIGMA FILE RESOLUTION FROM  574 WAVES,   64 LEVELS, AND    3 TRACERS
                                   IVS=198410 IDVC= 2 NVCOORD= 2  IDVM= 0
                               TO  574 WAVES,   64 LEVELS, AND    3 TRACERS.
                                   IVS=198410 IDVC= 2 NVCOORD= 2  IDVM= 0
  USING A GAUSSIAN TRANSFORM GRID OF 1760 X  880
  NEW OROGRAPHY READ IN
  NEW MODEL LEVELS COPIED FROM OLD
 omega time=   35.0000000000000     
  sigheado%pdryini2=  0.0000000E+00


     ENDING DATE-TIME    NOV 28,2012  19:02:50.833  333  WEN   2456260
* . * . * . * . * . * . * . * . * . * . * . * . * . * . * . * . * . * . * . * . 
     1     1       0.023       0.023       0.023
     2     1       1.140       1.140       1.140
     3     1       0.036       0.036       0.036
     4     1       0.000       0.000       0.000
     5    74      31.454       0.199       0.778
     6    74       0.015       0.000       0.001
     7    74      48.302       0.310       0.685
     8    74      16.595       0.069       0.255
     9    74      35.066       0.265       0.502
    10     1       0.748       0.748       0.748
    11     0       0.000       0.000       0.000
    12     0       0.000       0.000       0.000
    13     0       0.000       0.000       0.000
    14     0       0.000       0.000       0.000
    15     1       0.019       0.019       0.019
    16     1       0.000       0.000       0.000
    17     0       0.000       0.000       0.000
    18     0       0.000       0.000       0.000
    19     0       0.000       0.000       0.000
    20     0       0.000       0.000       0.000
    21     0       0.000       0.000       0.000
    22     0       0.000       0.000       0.000
    23     0       0.000       0.000       0.000
    24     0       0.000       0.000       0.000
    25     0       0.000       0.000       0.000
    26     0       0.000       0.000       0.000
    27     0       0.000       0.000       0.000
    28     0       0.000       0.000       0.000
    29     0       0.000       0.000       0.000
    30     0       0.000       0.000       0.000
*****************RESOURCE STATISTICS*******************************
The total amount of wall time                        = 133.408598
The total amount of time in user mode                = 717.591909
The total amount of time in sys mode                 = 8.200753
The maximum resident set size (KB)                   = 2818516
Number of page faults without I/O activity           = 9241
Number of page faults with I/O activity              = 0
Number of times filesystem performed INPUT           = 0
Number of times filesystem performed OUTPUT          = 0
Number of Voluntary Context Switches                 = 2311
Number of InVoluntary Context Switches               = 1313
*****************END OF RESOURCE STATISTICS*************************

Wed Nov 28 19:02:51 EST 2012 ====AFTER========# EM:: of Threads Requested 6
Wed Nov 28 19:02:51 EST 2012 ============# EM:: of Threads Requested 4


* . * . * . * . * . * . * . * . * . * . * . * . * . * . * . * . * . * . * . * . 
     PROGRAM GLOBAL_CHGRES HAS BEGUN. COMPILED 1999253.56     ORG: NP23
     STARTING DATE-TIME  NOV 28,2012  19:02:51.212  333  WEN   2456260


 &NAMCHG
 JCAP    =         574,
 LEVS    =           0,
 NTRAC   =           0,
 LONB    =        1760,
 LATB    =         880,
 LONBI   =           0,
 LATBI   =           0,
 IDVC    =           0,
 IDVM    =           0,
 IDSL    =           0,
 IGEN    =           0,
 MGG     =           0,
 MQUICK  =           0,
 IDVT    =           0,
 NCLDT   =           0,
 LATCH   =           6,
 LSOIL   =           2,
 IVSSFC  =      200004,
 IVSSIG  =           0,
 NVCOORD =           0,
 OUTTYP  =           2,
 IDRT    =           4,
 RI      = 21*0.000000000000000E+000  ,
 CPI     = 21*0.000000000000000E+000  ,
 IALB    =           0,
 CHGQ0   =           0,
 USE_UFO = F
 /
 CHGRES INPUT:  SPECTRAL SIGIO SIGMA FILE 
 CHGRES OUTPUT: SIGIO SIGMA FILE
  pdryinia=   98.26409    
CHANGE SIGMA FILE RESOLUTION FROM  574 WAVES,   64 LEVELS, AND    3 TRACERS
                                   IVS=198410 IDVC= 2 NVCOORD= 2  IDVM= 0
                               TO  574 WAVES,   64 LEVELS, AND    3 TRACERS.
                                   IVS=198410 IDVC= 2 NVCOORD= 2  IDVM= 0
  USING A GAUSSIAN TRANSFORM GRID OF 1760 X  880
  NEW OROGRAPHY READ IN
  NEW MODEL LEVELS COPIED FROM OLD
 omega time=   43.0000000000000     
  sigheado%pdryini2=  0.0000000E+00


     ENDING DATE-TIME    NOV 28,2012  19:05:29.750  333  WEN   2456260
* . * . * . * . * . * . * . * . * . * . * . * . * . * . * . * . * . * . * . * . 
     1     1       0.069       0.069       0.069
     2     1       1.214       1.214       1.214
     3     1       0.066       0.066       0.066
     4     1       0.000       0.000       0.000
     5    74      40.130       0.234       0.867
     6    74       0.020       0.000       0.001
     7    74      56.712       0.388       0.793
     8    74      20.325       0.086       0.296
     9    74      39.235       0.271       0.542
    10     1       0.734       0.734       0.734
    11     0       0.000       0.000       0.000
    12     0       0.000       0.000       0.000
    13     0       0.000       0.000       0.000
    14     0       0.000       0.000       0.000
    15     1       0.028       0.028       0.028
    16     1       0.000       0.000       0.000
    17     0       0.000       0.000       0.000
    18     0       0.000       0.000       0.000
    19     0       0.000       0.000       0.000
    20     0       0.000       0.000       0.000
    21     0       0.000       0.000       0.000
    22     0       0.000       0.000       0.000
    23     0       0.000       0.000       0.000
    24     0       0.000       0.000       0.000
    25     0       0.000       0.000       0.000
    26     0       0.000       0.000       0.000
    27     0       0.000       0.000       0.000
    28     0       0.000       0.000       0.000
    29     0       0.000       0.000       0.000
    30     0       0.000       0.000       0.000
*****************RESOURCE STATISTICS*******************************
The total amount of wall time                        = 158.538129
The total amount of time in user mode                = 587.448694
The total amount of time in sys mode                 = 4.112374
The maximum resident set size (KB)                   = 2790936
Number of page faults without I/O activity           = 8376
Number of page faults with I/O activity              = 0
Number of times filesystem performed INPUT           = 0
Number of times filesystem performed OUTPUT          = 0
Number of Voluntary Context Switches                 = 1813
Number of InVoluntary Context Switches               = 715
*****************END OF RESOURCE STATISTICS*************************

Wed Nov 28 19:05:29 EST 2012 ====AFTER========# EM:: of Threads Requested 4
Wed Nov 28 19:05:29 EST 2012 ============# EM:: of Threads Requested 2


* . * . * . * . * . * . * . * . * . * . * . * . * . * . * . * . * . * . * . * . 
     PROGRAM GLOBAL_CHGRES HAS BEGUN. COMPILED 1999253.56     ORG: NP23
     STARTING DATE-TIME  NOV 28,2012  19:05:29.919  333  WEN   2456260


 &NAMCHG
 JCAP    =         574,
 LEVS    =           0,
 NTRAC   =           0,
 LONB    =        1760,
 LATB    =         880,
 LONBI   =           0,
 LATBI   =           0,
 IDVC    =           0,
 IDVM    =           0,
 IDSL    =           0,
 IGEN    =           0,
 MGG     =           0,
 MQUICK  =           0,
 IDVT    =           0,
 NCLDT   =           0,
 LATCH   =           6,
 LSOIL   =           2,
 IVSSFC  =      200004,
 IVSSIG  =           0,
 NVCOORD =           0,
 OUTTYP  =           2,
 IDRT    =           4,
 RI      = 21*0.000000000000000E+000  ,
 CPI     = 21*0.000000000000000E+000  ,
 IALB    =           0,
 CHGQ0   =           0,
 USE_UFO = F
 /
 CHGRES INPUT:  SPECTRAL SIGIO SIGMA FILE 
 CHGRES OUTPUT: SIGIO SIGMA FILE
  pdryinia=   98.26409    
CHANGE SIGMA FILE RESOLUTION FROM  574 WAVES,   64 LEVELS, AND    3 TRACERS
                                   IVS=198410 IDVC= 2 NVCOORD= 2  IDVM= 0
                               TO  574 WAVES,   64 LEVELS, AND    3 TRACERS.
                                   IVS=198410 IDVC= 2 NVCOORD= 2  IDVM= 0
  USING A GAUSSIAN TRANSFORM GRID OF 1760 X  880
  NEW OROGRAPHY READ IN
  NEW MODEL LEVELS COPIED FROM OLD
 omega time=   71.0000000000000     
  sigheado%pdryini2=  0.0000000E+00


     ENDING DATE-TIME    NOV 28,2012  19:09:29.052  333  WEN   2456260
* . * . * . * . * . * . * . * . * . * . * . * . * . * . * . * . * . * . * . * . 
     1     1       0.023       0.023       0.023
     2     1       1.137       1.137       1.137
     3     1       0.038       0.038       0.038
     4     1       0.000       0.000       0.000
     5    74      66.577       0.369       1.218
     6    74       0.022       0.000       0.001
     7    74      85.088       0.627       1.167
     8    74      28.868       0.129       0.423
     9    74      56.644       0.376       0.786
    10     1       0.690       0.690       0.690
    11     0       0.000       0.000       0.000
    12     0       0.000       0.000       0.000
    13     0       0.000       0.000       0.000
    14     0       0.000       0.000       0.000
    15     1       0.038       0.038       0.038
    16     1       0.000       0.000       0.000
    17     0       0.000       0.000       0.000
    18     0       0.000       0.000       0.000
    19     0       0.000       0.000       0.000
    20     0       0.000       0.000       0.000
    21     0       0.000       0.000       0.000
    22     0       0.000       0.000       0.000
    23     0       0.000       0.000       0.000
    24     0       0.000       0.000       0.000
    25     0       0.000       0.000       0.000
    26     0       0.000       0.000       0.000
    27     0       0.000       0.000       0.000
    28     0       0.000       0.000       0.000
    29     0       0.000       0.000       0.000
    30     0       0.000       0.000       0.000
*****************RESOURCE STATISTICS*******************************
The total amount of wall time                        = 239.133495
The total amount of time in user mode                = 464.524381
The total amount of time in sys mode                 = 2.340644
The maximum resident set size (KB)                   = 2756956
Number of page faults without I/O activity           = 8042
Number of page faults with I/O activity              = 0
Number of times filesystem performed INPUT           = 0
Number of times filesystem performed OUTPUT          = 0
Number of Voluntary Context Switches                 = 1680
Number of InVoluntary Context Switches               = 558
*****************END OF RESOURCE STATISTICS*************************

Wed Nov 28 19:09:29 EST 2012 ====AFTER========# EM:: of Threads Requested 2
Wed Nov 28 19:09:29 EST 2012 ============# EM:: of Threads Requested 1


* . * . * . * . * . * . * . * . * . * . * . * . * . * . * . * . * . * . * . * . 
     PROGRAM GLOBAL_CHGRES HAS BEGUN. COMPILED 1999253.56     ORG: NP23
     STARTING DATE-TIME  NOV 28,2012  19:09:29.467  333  WEN   2456260


 &NAMCHG
 JCAP    =         574,
 LEVS    =           0,
 NTRAC   =           0,
 LONB    =        1760,
 LATB    =         880,
 LONBI   =           0,
 LATBI   =           0,
 IDVC    =           0,
 IDVM    =           0,
 IDSL    =           0,
 IGEN    =           0,
 MGG     =           0,
 MQUICK  =           0,
 IDVT    =           0,
 NCLDT   =           0,
 LATCH   =           6,
 LSOIL   =           2,
 IVSSFC  =      200004,
 IVSSIG  =           0,
 NVCOORD =           0,
 OUTTYP  =           2,
 IDRT    =           4,
 RI      = 21*0.000000000000000E+000  ,
 CPI     = 21*0.000000000000000E+000  ,
 IALB    =           0,
 CHGQ0   =           0,
 USE_UFO = F
 /
 CHGRES INPUT:  SPECTRAL SIGIO SIGMA FILE 
 CHGRES OUTPUT: SIGIO SIGMA FILE
  pdryinia=   98.26409    
CHANGE SIGMA FILE RESOLUTION FROM  574 WAVES,   64 LEVELS, AND    3 TRACERS
                                   IVS=198410 IDVC= 2 NVCOORD= 2  IDVM= 0
                               TO  574 WAVES,   64 LEVELS, AND    3 TRACERS.
                                   IVS=198410 IDVC= 2 NVCOORD= 2  IDVM= 0
  USING A GAUSSIAN TRANSFORM GRID OF 1760 X  880
  NEW OROGRAPHY READ IN
  NEW MODEL LEVELS COPIED FROM OLD
 omega time=   127.000000000000     
  sigheado%pdryini2=  0.0000000E+00


     ENDING DATE-TIME    NOV 28,2012  19:16:20.419  333  WEN   2456260
* . * . * . * . * . * . * . * . * . * . * . * . * . * . * . * . * . * . * . * . 
     1     1       0.022       0.022       0.022
     2     1       1.142       1.142       1.142
     3     1       0.037       0.037       0.037