Wed Nov 28 13:54:12 EST 2012 ============# EM:: of Threads Requested 16


* . * . * . * . * . * . * . * . * . * . * . * . * . * . * . * . * . * . * . * . 
     PROGRAM GLOBAL_CHGRES HAS BEGUN. COMPILED 1999253.56     ORG: NP23
     STARTING DATE-TIME  NOV 28,2012  13:54:12.652  333  WEN   2456260


 &NAMCHG
 JCAP    =         574,
 LEVS    =           0,
 NTRAC   =           0,
 LONB    =        1760,
 LATB    =         880,
 LONBI   =           0,
 LATBI   =           0,
 IDVC    =           0,
 IDVM    =           0,
 IDSL    =           0,
 IGEN    =           0,
 MGG     =           0,
 MQUICK  =           0,
 IDVT    =           0,
 NCLDT   =           0,
 LATCH   =           8,
 LSOIL   =           2,
 IVSSFC  =      200004,
 IVSSIG  =           0,
 NVCOORD =           0,
 OUTTYP  =           2,
 IDRT    =           4,
 RI      = 21*0.000000000000000E+000  ,
 CPI     = 21*0.000000000000000E+000  ,
 IALB    =           0,
 CHGQ0   =           0,
 USE_UFO = F
 /
 CHGRES INPUT:  SPECTRAL SIGIO SIGMA FILE 
 CHGRES OUTPUT: SIGIO SIGMA FILE
  pdryinia=   98.26409    
CHANGE SIGMA FILE RESOLUTION FROM  574 WAVES,   64 LEVELS, AND    3 TRACERS
                                   IVS=198410 IDVC= 2 NVCOORD= 2  IDVM= 0
                               TO  574 WAVES,   64 LEVELS, AND    3 TRACERS.
                                   IVS=198410 IDVC= 2 NVCOORD= 2  IDVM= 0
  USING A GAUSSIAN TRANSFORM GRID OF 1760 X  880
  NEW OROGRAPHY READ IN
  NEW MODEL LEVELS COPIED FROM OLD
 omega time=   25.0000000000000     
  sigheado%pdryini2=  0.0000000E+00


     ENDING DATE-TIME    NOV 28,2012  13:55:53.928  333  WEN   2456260
* . * . * . * . * . * . * . * . * . * . * . * . * . * . * . * . * . * . * . * . 
     1     1       0.109       0.109       0.109
     2     1       1.210       1.210       1.210
     3     1       0.062       0.062       0.062
     4     1       0.000       0.000       0.000
     5    55      21.220       0.357       0.691
     6    55       0.015       0.000       0.001
     7    55      36.238       0.633       0.709
     8    55      11.756       0.201       0.244
     9    55      29.871       0.503       0.576
    10     1       0.785       0.785       0.785
    11     0       0.000       0.000       0.000
    12     0       0.000       0.000       0.000
    13     0       0.000       0.000       0.000
    14     0       0.000       0.000       0.000
    15     1       0.000       0.000       0.000
    16     1       0.000       0.000       0.000
    17     0       0.000       0.000       0.000
    18     0       0.000       0.000       0.000
    19     0       0.000       0.000       0.000
    20     0       0.000       0.000       0.000
    21     0       0.000       0.000       0.000
    22     0       0.000       0.000       0.000
    23     0       0.000       0.000       0.000
    24     0       0.000       0.000       0.000
    25     0       0.000       0.000       0.000
    26     0       0.000       0.000       0.000
    27     0       0.000       0.000       0.000
    28     0       0.000       0.000       0.000
    29     0       0.000       0.000       0.000
    30     0       0.000       0.000       0.000
*****************RESOURCE STATISTICS*******************************
The total amount of wall time                        = 101.276125
The total amount of time in user mode                = 1294.123263
The total amount of time in sys mode                 = 20.080947
The maximum resident set size (KB)                   = 3089324
Number of page faults without I/O activity           = 13058
Number of page faults with I/O activity              = 0
Number of times filesystem performed INPUT           = 0
Number of times filesystem performed OUTPUT          = 0
Number of Voluntary Context Switches                 = 6238
Number of InVoluntary Context Switches               = 6450
*****************END OF RESOURCE STATISTICS*************************

Wed Nov 28 13:55:54 EST 2012 ====AFTER========# EM:: of Threads Requested 16
Wed Nov 28 13:55:54 EST 2012 ============# EM:: of Threads Requested 12


* . * . * . * . * . * . * . * . * . * . * . * . * . * . * . * . * . * . * . * . 
     PROGRAM GLOBAL_CHGRES HAS BEGUN. COMPILED 1999253.56     ORG: NP23
     STARTING DATE-TIME  NOV 28,2012  13:55:54.088  333  WEN   2456260


 &NAMCHG
 JCAP    =         574,
 LEVS    =           0,
 NTRAC   =           0,
 LONB    =        1760,
 LATB    =         880,
 LONBI   =           0,
 LATBI   =           0,
 IDVC    =           0,
 IDVM    =           0,
 IDSL    =           0,
 IGEN    =           0,
 MGG     =           0,
 MQUICK  =           0,
 IDVT    =           0,
 NCLDT   =           0,
 LATCH   =           8,
 LSOIL   =           2,
 IVSSFC  =      200004,
 IVSSIG  =           0,
 NVCOORD =           0,
 OUTTYP  =           2,
 IDRT    =           4,
 RI      = 21*0.000000000000000E+000  ,
 CPI     = 21*0.000000000000000E+000  ,
 IALB    =           0,
 CHGQ0   =           0,
 USE_UFO = F
 /
 CHGRES INPUT:  SPECTRAL SIGIO SIGMA FILE 
 CHGRES OUTPUT: SIGIO SIGMA FILE
  pdryinia=   98.26409    
CHANGE SIGMA FILE RESOLUTION FROM  574 WAVES,   64 LEVELS, AND    3 TRACERS
                                   IVS=198410 IDVC= 2 NVCOORD= 2  IDVM= 0
                               TO  574 WAVES,   64 LEVELS, AND    3 TRACERS.
                                   IVS=198410 IDVC= 2 NVCOORD= 2  IDVM= 0
  USING A GAUSSIAN TRANSFORM GRID OF 1760 X  880
  NEW OROGRAPHY READ IN
  NEW MODEL LEVELS COPIED FROM OLD
 omega time=   24.0000000000000     
  sigheado%pdryini2=  0.0000000E+00


     ENDING DATE-TIME    NOV 28,2012  13:57:29.713  333  WEN   2456260
* . * . * . * . * . * . * . * . * . * . * . * . * . * . * . * . * . * . * . * . 
     1     1       0.022       0.022       0.022
     2     1       1.134       1.134       1.134
     3     1       0.035       0.035       0.035
     4     1       0.000       0.000       0.000
     5    55      20.474       0.353       0.689
     6    55       0.020       0.000       0.001
     7    55      37.022       0.651       0.695
     8    55      12.517       0.213       0.238
     9    55      23.667       0.423       0.469
    10     1       0.727       0.727       0.727
    11     0       0.000       0.000       0.000
    12     0       0.000       0.000       0.000
    13     0       0.000       0.000       0.000
    14     0       0.000       0.000       0.000
    15     1       0.001       0.001       0.001
    16     1       0.000       0.000       0.000
    17     0       0.000       0.000       0.000
    18     0       0.000       0.000       0.000
    19     0       0.000       0.000       0.000
    20     0       0.000       0.000       0.000
    21     0       0.000       0.000       0.000
    22     0       0.000       0.000       0.000
    23     0       0.000       0.000       0.000
    24     0       0.000       0.000       0.000
    25     0       0.000       0.000       0.000
    26     0       0.000       0.000       0.000
    27     0       0.000       0.000       0.000
    28     0       0.000       0.000       0.000
    29     0       0.000       0.000       0.000
    30     0       0.000       0.000       0.000
*****************RESOURCE STATISTICS*******************************
The total amount of wall time                        = 95.624799
The total amount of time in user mode                = 931.072455
The total amount of time in sys mode                 = 14.059862
The maximum resident set size (KB)                   = 3014888
Number of page faults without I/O activity           = 9278
Number of page faults with I/O activity              = 0
Number of times filesystem performed INPUT           = 0
Number of times filesystem performed OUTPUT          = 0
Number of Voluntary Context Switches                 = 3757
Number of InVoluntary Context Switches               = 1306
*****************END OF RESOURCE STATISTICS*************************

Wed Nov 28 13:57:29 EST 2012 ====AFTER========# EM:: of Threads Requested 12
Wed Nov 28 13:57:29 EST 2012 ============# EM:: of Threads Requested 10


* . * . * . * . * . * . * . * . * . * . * . * . * . * . * . * . * . * . * . * . 
     PROGRAM GLOBAL_CHGRES HAS BEGUN. COMPILED 1999253.56     ORG: NP23
     STARTING DATE-TIME  NOV 28,2012  13:57:29.941  333  WEN   2456260


 &NAMCHG
 JCAP    =         574,
 LEVS    =           0,
 NTRAC   =           0,
 LONB    =        1760,
 LATB    =         880,
 LONBI   =           0,
 LATBI   =           0,
 IDVC    =           0,
 IDVM    =           0,
 IDSL    =           0,
 IGEN    =           0,
 MGG     =           0,
 MQUICK  =           0,
 IDVT    =           0,
 NCLDT   =           0,
 LATCH   =           8,
 LSOIL   =           2,
 IVSSFC  =      200004,
 IVSSIG  =           0,
 NVCOORD =           0,
 OUTTYP  =           2,
 IDRT    =           4,
 RI      = 21*0.000000000000000E+000  ,
 CPI     = 21*0.000000000000000E+000  ,
 IALB    =           0,
 CHGQ0   =           0,
 USE_UFO = F
 /
 CHGRES INPUT:  SPECTRAL SIGIO SIGMA FILE 
 CHGRES OUTPUT: SIGIO SIGMA FILE
  pdryinia=   98.26409    
CHANGE SIGMA FILE RESOLUTION FROM  574 WAVES,   64 LEVELS, AND    3 TRACERS
                                   IVS=198410 IDVC= 2 NVCOORD= 2  IDVM= 0
                               TO  574 WAVES,   64 LEVELS, AND    3 TRACERS.
                                   IVS=198410 IDVC= 2 NVCOORD= 2  IDVM= 0
  USING A GAUSSIAN TRANSFORM GRID OF 1760 X  880
  NEW OROGRAPHY READ IN
  NEW MODEL LEVELS COPIED FROM OLD
 omega time=   26.0000000000000     
  sigheado%pdryini2=  0.0000000E+00


     ENDING DATE-TIME    NOV 28,2012  13:59:08.584  333  WEN   2456260
* . * . * . * . * . * . * . * . * . * . * . * . * . * . * . * . * . * . * . * . 
     1     1       0.022       0.022       0.022
     2     1       1.136       1.136       1.136
     3     1       0.037       0.037       0.037
     4     1       0.000       0.000       0.000
     5    55      22.130       0.390       0.720
     6    55       0.014       0.000       0.001
     7    55      38.088       0.670       0.706
     8    55      12.877       0.228       0.241
     9    55      23.640       0.421       0.445
    10     1       0.691       0.691       0.691
    11     0       0.000       0.000       0.000
    12     0       0.000       0.000       0.000
    13     0       0.000       0.000       0.000
    14     0       0.000       0.000       0.000
    15     1       0.000       0.000       0.000
    16     1       0.000       0.000       0.000
    17     0       0.000       0.000       0.000
    18     0       0.000       0.000       0.000
    19     0       0.000       0.000       0.000
    20     0       0.000       0.000       0.000
    21     0       0.000       0.000       0.000
    22     0       0.000       0.000       0.000
    23     0       0.000       0.000       0.000
    24     0       0.000       0.000       0.000
    25     0       0.000       0.000       0.000
    26     0       0.000       0.000       0.000
    27     0       0.000       0.000       0.000
    28     0       0.000       0.000       0.000
    29     0       0.000       0.000       0.000
    30     0       0.000       0.000       0.000
*****************RESOURCE STATISTICS*******************************
The total amount of wall time                        = 98.642877
The total amount of time in user mode                = 810.770744
The total amount of time in sys mode                 = 11.681224
The maximum resident set size (KB)                   = 2977872
Number of page faults without I/O activity           = 8167
Number of page faults with I/O activity              = 0
Number of times filesystem performed INPUT           = 0
Number of times filesystem performed OUTPUT          = 0
Number of Voluntary Context Switches                 = 3108
Number of InVoluntary Context Switches               = 1055
*****************END OF RESOURCE STATISTICS*************************

Wed Nov 28 13:59:08 EST 2012 ====AFTER========# EM:: of Threads Requested 10
Wed Nov 28 13:59:08 EST 2012 ============# EM:: of Threads Requested 8


* . * . * . * . * . * . * . * . * . * . * . * . * . * . * . * . * . * . * . * . 
     PROGRAM GLOBAL_CHGRES HAS BEGUN. COMPILED 1999253.56     ORG: NP23
     STARTING DATE-TIME  NOV 28,2012  13:59:08.780  333  WEN   2456260


 &NAMCHG
 JCAP    =         574,
 LEVS    =           0,
 NTRAC   =           0,
 LONB    =        1760,
 LATB    =         880,
 LONBI   =           0,
 LATBI   =           0,
 IDVC    =           0,
 IDVM    =           0,
 IDSL    =           0,
 IGEN    =           0,
 MGG     =           0,
 MQUICK  =           0,
 IDVT    =           0,
 NCLDT   =           0,
 LATCH   =           8,
 LSOIL   =           2,
 IVSSFC  =      200004,
 IVSSIG  =           0,
 NVCOORD =           0,
 OUTTYP  =           2,
 IDRT    =           4,
 RI      = 21*0.000000000000000E+000  ,
 CPI     = 21*0.000000000000000E+000  ,
 IALB    =           0,
 CHGQ0   =           0,
 USE_UFO = F
 /
 CHGRES INPUT:  SPECTRAL SIGIO SIGMA FILE 
 CHGRES OUTPUT: SIGIO SIGMA FILE
  pdryinia=   98.26409    
CHANGE SIGMA FILE RESOLUTION FROM  574 WAVES,   64 LEVELS, AND    3 TRACERS
                                   IVS=198410 IDVC= 2 NVCOORD= 2  IDVM= 0
                               TO  574 WAVES,   64 LEVELS, AND    3 TRACERS.
                                   IVS=198410 IDVC= 2 NVCOORD= 2  IDVM= 0
  USING A GAUSSIAN TRANSFORM GRID OF 1760 X  880
  NEW OROGRAPHY READ IN
  NEW MODEL LEVELS COPIED FROM OLD
 omega time=   26.0000000000000     
  sigheado%pdryini2=  0.0000000E+00


     ENDING DATE-TIME    NOV 28,2012  14:00:52.518  333  WEN   2456260
* . * . * . * . * . * . * . * . * . * . * . * . * . * . * . * . * . * . * . * . 
     1     1       0.022       0.022       0.022
     2     1       1.132       1.132       1.132
     3     1       0.036       0.036       0.036
     4     1       0.000       0.000       0.000
     5    55      24.477       0.431       0.759
     6    55       0.015       0.000       0.001
     7    55      39.377       0.681       0.726
     8    55      13.555       0.240       0.253
     9    55      24.388       0.429       0.448
    10     1       0.726       0.726       0.726
    11     0       0.000       0.000       0.000
    12     0       0.000       0.000       0.000
    13     0       0.000       0.000       0.000
    14     0       0.000       0.000       0.000
    15     1       0.001       0.001       0.001
    16     1       0.000       0.000       0.000
    17     0       0.000       0.000       0.000
    18     0       0.000       0.000       0.000
    19     0       0.000       0.000       0.000
    20     0       0.000       0.000       0.000
    21     0       0.000       0.000       0.000
    22     0       0.000       0.000       0.000
    23     0       0.000       0.000       0.000
    24     0       0.000       0.000       0.000
    25     0       0.000       0.000       0.000
    26     0       0.000       0.000       0.000
    27     0       0.000       0.000       0.000
    28     0       0.000       0.000       0.000
    29     0       0.000       0.000       0.000
    30     0       0.000       0.000       0.000
*****************RESOURCE STATISTICS*******************************
The total amount of wall time                        = 103.738098
The total amount of time in user mode                = 709.166190
The total amount of time in sys mode                 = 9.082619
The maximum resident set size (KB)                   = 2938256
Number of page faults without I/O activity           = 8466
Number of page faults with I/O activity              = 0
Number of times filesystem performed INPUT           = 0
Number of times filesystem performed OUTPUT          = 0
Number of Voluntary Context Switches                 = 2614
Number of InVoluntary Context Switches               = 898
*****************END OF RESOURCE STATISTICS*************************

Wed Nov 28 14:00:52 EST 2012 ====AFTER========# EM:: of Threads Requested 8
Wed Nov 28 14:00:52 EST 2012 ============# EM:: of Threads Requested 6


* . * . * . * . * . * . * . * . * . * . * . * . * . * . * . * . * . * . * . * . 
     PROGRAM GLOBAL_CHGRES HAS BEGUN. COMPILED 1999253.56     ORG: NP23
     STARTING DATE-TIME  NOV 28,2012  14:00:52.643  333  WEN   2456260


 &NAMCHG
 JCAP    =         574,
 LEVS    =           0,
 NTRAC   =           0,
 LONB    =        1760,
 LATB    =         880,
 LONBI   =           0,
 LATBI   =           0,
 IDVC    =           0,
 IDVM    =           0,
 IDSL    =           0,
 IGEN    =           0,
 MGG     =           0,
 MQUICK  =           0,
 IDVT    =           0,
 NCLDT   =           0,
 LATCH   =           8,
 LSOIL   =           2,
 IVSSFC  =      200004,
 IVSSIG  =           0,
 NVCOORD =           0,
 OUTTYP  =           2,
 IDRT    =           4,
 RI      = 21*0.000000000000000E+000  ,
 CPI     = 21*0.000000000000000E+000  ,
 IALB    =           0,
 CHGQ0   =           0,
 USE_UFO = F
 /
 CHGRES INPUT:  SPECTRAL SIGIO SIGMA FILE 
 CHGRES OUTPUT: SIGIO SIGMA FILE
  pdryinia=   98.26409    
CHANGE SIGMA FILE RESOLUTION FROM  574 WAVES,   64 LEVELS, AND    3 TRACERS
                                   IVS=198410 IDVC= 2 NVCOORD= 2  IDVM= 0
                               TO  574 WAVES,   64 LEVELS, AND    3 TRACERS.
                                   IVS=198410 IDVC= 2 NVCOORD= 2  IDVM= 0
  USING A GAUSSIAN TRANSFORM GRID OF 1760 X  880
  NEW OROGRAPHY READ IN
  NEW MODEL LEVELS COPIED FROM OLD
 omega time=   32.0000000000000     
  sigheado%pdryini2=  0.0000000E+00


     ENDING DATE-TIME    NOV 28,2012  14:02:50.222  333  WEN   2456260
* . * . * . * . * . * . * . * . * . * . * . * . * . * . * . * . * . * . * . * . 
     1     1       0.023       0.023       0.023
     2     1       1.131       1.131       1.131
     3     1       0.037       0.037       0.037
     4     1       0.000       0.000       0.000
     5    55      28.718       0.508       0.841
     6    55       0.011       0.000       0.001
     7    55      43.814       0.773       0.808
     8    55      15.340       0.264       0.288
     9    55      27.753       0.492       0.513
    10     1       0.736       0.736       0.736
    11     0       0.000       0.000       0.000
    12     0       0.000       0.000       0.000
    13     0       0.000       0.000       0.000
    14     0       0.000       0.000       0.000
    15     1       0.013       0.013       0.013
    16     1       0.000       0.000       0.000
    17     0       0.000       0.000       0.000
    18     0       0.000       0.000       0.000
    19     0       0.000       0.000       0.000
    20     0       0.000       0.000       0.000
    21     0       0.000       0.000       0.000
    22     0       0.000       0.000       0.000
    23     0       0.000       0.000       0.000
    24     0       0.000       0.000       0.000
    25     0       0.000       0.000       0.000
    26     0       0.000       0.000       0.000
    27     0       0.000       0.000       0.000
    28     0       0.000       0.000       0.000
    29     0       0.000       0.000       0.000
    30     0       0.000       0.000       0.000
*****************RESOURCE STATISTICS*******************************
The total amount of wall time                        = 117.579441
The total amount of time in user mode                = 615.078493
The total amount of time in sys mode                 = 8.063774
The maximum resident set size (KB)                   = 2903100
Number of page faults without I/O activity           = 9290
Number of page faults with I/O activity              = 0
Number of times filesystem performed INPUT           = 0
Number of times filesystem performed OUTPUT          = 0
Number of Voluntary Context Switches                 = 2026
Number of InVoluntary Context Switches               = 811
*****************END OF RESOURCE STATISTICS*************************

Wed Nov 28 14:02:50 EST 2012 ====AFTER========# EM:: of Threads Requested 6
Wed Nov 28 14:02:50 EST 2012 ============# EM:: of Threads Requested 4


* . * . * . * . * . * . * . * . * . * . * . * . * . * . * . * . * . * . * . * . 
     PROGRAM GLOBAL_CHGRES HAS BEGUN. COMPILED 1999253.56     ORG: NP23
     STARTING DATE-TIME  NOV 28,2012  14:02:50.291  333  WEN   2456260


 &NAMCHG
 JCAP    =         574,
 LEVS    =           0,
 NTRAC   =           0,
 LONB    =        1760,
 LATB    =         880,
 LONBI   =           0,
 LATBI   =           0,
 IDVC    =           0,
 IDVM    =           0,
 IDSL    =           0,
 IGEN    =           0,
 MGG     =           0,
 MQUICK  =           0,
 IDVT    =           0,
 NCLDT   =           0,
 LATCH   =           8,
 LSOIL   =           2,
 IVSSFC  =      200004,
 IVSSIG  =           0,
 NVCOORD =           0,
 OUTTYP  =           2,
 IDRT    =           4,
 RI      = 21*0.000000000000000E+000  ,
 CPI     = 21*0.000000000000000E+000  ,
 IALB    =           0,
 CHGQ0   =           0,
 USE_UFO = F
 /
 CHGRES INPUT:  SPECTRAL SIGIO SIGMA FILE 
 CHGRES OUTPUT: SIGIO SIGMA FILE
  pdryinia=   98.26409    
CHANGE SIGMA FILE RESOLUTION FROM  574 WAVES,   64 LEVELS, AND    3 TRACERS
                                   IVS=198410 IDVC= 2 NVCOORD= 2  IDVM= 0
                               TO  574 WAVES,   64 LEVELS, AND    3 TRACERS.
                                   IVS=198410 IDVC= 2 NVCOORD= 2  IDVM= 0
  USING A GAUSSIAN TRANSFORM GRID OF 1760 X  880
  NEW OROGRAPHY READ IN
  NEW MODEL LEVELS COPIED FROM OLD
 omega time=   39.0000000000000     
  sigheado%pdryini2=  0.0000000E+00


     ENDING DATE-TIME    NOV 28,2012  14:05:17.953  333  WEN   2456260
* . * . * . * . * . * . * . * . * . * . * . * . * . * . * . * . * . * . * . * . 
     1     1       0.023       0.023       0.023
     2     1       1.136       1.136       1.136
     3     1       0.036       0.036       0.036
     4     1       0.000       0.000       0.000
     5    55      38.399       0.663       1.001
     6    55       0.018       0.000       0.001
     7    55      53.315       0.899       1.287
     8    55      18.956       0.319       0.562
     9    55      35.073       0.607       0.983
    10     1       0.701       0.701       0.701
    11     0       0.000       0.000       0.000
    12     0       0.000       0.000       0.000
    13     0       0.000       0.000       0.000
    14     0       0.000       0.000       0.000
    15     1       0.000       0.000       0.000
    16     1       0.001       0.001       0.001
    17     0       0.000       0.000       0.000
    18     0       0.000       0.000       0.000
    19     0       0.000       0.000       0.000
    20     0       0.000       0.000       0.000
    21     0       0.000       0.000       0.000
    22     0       0.000       0.000       0.000
    23     0       0.000       0.000       0.000
    24     0       0.000       0.000       0.000
    25     0       0.000       0.000       0.000
    26     0       0.000       0.000       0.000
    27     0       0.000       0.000       0.000
    28     0       0.000       0.000       0.000
    29     0       0.000       0.000       0.000
    30     0       0.000       0.000       0.000
*****************RESOURCE STATISTICS*******************************
The total amount of wall time                        = 147.661624
The total amount of time in user mode                = 536.041509
The total amount of time in sys mode                 = 4.977243
The maximum resident set size (KB)                   = 2863584
Number of page faults without I/O activity           = 9197
Number of page faults with I/O activity              = 0
Number of times filesystem performed INPUT           = 0
Number of times filesystem performed OUTPUT          = 0
Number of Voluntary Context Switches                 = 1731
Number of InVoluntary Context Switches               = 51143
*****************END OF RESOURCE STATISTICS*************************

Wed Nov 28 14:05:18 EST 2012 ====AFTER========# EM:: of Threads Requested 4
Wed Nov 28 14:05:18 EST 2012 ============# EM:: of Threads Requested 2


* . * . * . * . * . * . * . * . * . * . * . * . * . * . * . * . * . * . * . * . 
     PROGRAM GLOBAL_CHGRES HAS BEGUN. COMPILED 1999253.56     ORG: NP23
     STARTING DATE-TIME  NOV 28,2012  14:05:18.156  333  WEN   2456260


 &NAMCHG
 JCAP    =         574,
 LEVS    =           0,
 NTRAC   =           0,
 LONB    =        1760,
 LATB    =         880,
 LONBI   =           0,
 LATBI   =           0,
 IDVC    =           0,
 IDVM    =           0,
 IDSL    =           0,
 IGEN    =           0,
 MGG     =           0,
 MQUICK  =           0,
 IDVT    =           0,
 NCLDT   =           0,
 LATCH   =           8,
 LSOIL   =           2,
 IVSSFC  =      200004,
 IVSSIG  =           0,
 NVCOORD =           0,
 OUTTYP  =           2,
 IDRT    =           4,
 RI      = 21*0.000000000000000E+000  ,
 CPI     = 21*0.000000000000000E+000  ,
 IALB    =           0,
 CHGQ0   =           0,
 USE_UFO = F
 /
 CHGRES INPUT:  SPECTRAL SIGIO SIGMA FILE 
 CHGRES OUTPUT: SIGIO SIGMA FILE
  pdryinia=   98.26409    
CHANGE SIGMA FILE RESOLUTION FROM  574 WAVES,   64 LEVELS, AND    3 TRACERS
                                   IVS=198410 IDVC= 2 NVCOORD= 2  IDVM= 0
                               TO  574 WAVES,   64 LEVELS, AND    3 TRACERS.
                                   IVS=198410 IDVC= 2 NVCOORD= 2  IDVM= 0
  USING A GAUSSIAN TRANSFORM GRID OF 1760 X  880
  NEW OROGRAPHY READ IN
  NEW MODEL LEVELS COPIED FROM OLD
 omega time=   64.0000000000000     
  sigheado%pdryini2=  0.0000000E+00


     ENDING DATE-TIME    NOV 28,2012  14:09:05.249  333  WEN   2456260
* . * . * . * . * . * . * . * . * . * . * . * . * . * . * . * . * . * . * . * . 
     1     1       0.023       0.023       0.023
     2     1       1.130       1.130       1.130
     3     1       0.036       0.036       0.036
     4     1       0.000       0.000       0.000
     5    55      64.813       1.161       1.520
     6    55       0.022       0.000       0.001
     7    55      77.119       1.355       1.425
     8    55      28.523       0.498       0.566
     9    55      54.685       0.981       0.999
    10     1       0.735       0.735       0.735
    11     0       0.000       0.000       0.000
    12     0       0.000       0.000       0.000
    13     0       0.000       0.000       0.000
    14     0       0.000       0.000       0.000
    15     1       0.000       0.000       0.000
    16     1       0.000       0.000       0.000
    17     0       0.000       0.000       0.000
    18     0       0.000       0.000       0.000
    19     0       0.000       0.000       0.000
    20     0       0.000       0.000       0.000
    21     0       0.000       0.000       0.000
    22     0       0.000       0.000       0.000
    23     0       0.000       0.000       0.000
    24     0       0.000       0.000       0.000
    25     0       0.000       0.000       0.000
    26     0       0.000       0.000       0.000
    27     0       0.000       0.000       0.000
    28     0       0.000       0.000       0.000
    29     0       0.000       0.000       0.000
    30     0       0.000       0.000       0.000
*****************RESOURCE STATISTICS*******************************
The total amount of wall time                        = 227.093455
The total amount of time in user mode                = 436.736605
The total amount of time in sys mode                 = 1.673745
The maximum resident set size (KB)                   = 2825892
Number of page faults without I/O activity           = 7411
Number of page faults with I/O activity              = 0
Number of times filesystem performed INPUT           = 0
Number of times filesystem performed OUTPUT          = 0
Number of Voluntary Context Switches                 = 1603
Number of InVoluntary Context Switches               = 573
*****************END OF RESOURCE STATISTICS*************************

Wed Nov 28 14:09:05 EST 2012 ====AFTER========# EM:: of Threads Requested 2
Wed Nov 28 14:09:05 EST 2012 ============# EM:: of Threads Requested 1


* . * . * . * . * . * . * . * . * . * . * . * . * . * . * . * . * . * . * . * . 
     PROGRAM GLOBAL_CHGRES HAS BEGUN. COMPILED 1999253.56     ORG: NP23
     STARTING DATE-TIME  NOV 28,2012  14:09:05.449  333  WEN   2456260


 &NAMCHG
 JCAP    =         574,
 LEVS    =           0,
 NTRAC   =           0,
 LONB    =        1760,
 LATB    =         880,
 LONBI   =           0,
 LATBI   =           0,
 IDVC    =           0,
 IDVM    =           0,
 IDSL    =           0,
 IGEN    =           0,
 MGG     =           0,
 MQUICK  =           0,
 IDVT    =           0,
 NCLDT   =           0,
 LATCH   =           8,
 LSOIL   =           2,
 IVSSFC  =      200004,
 IVSSIG  =           0,
 NVCOORD =           0,
 OUTTYP  =           2,
 IDRT    =           4,
 RI      = 21*0.000000000000000E+000  ,
 CPI     = 21*0.000000000000000E+000  ,
 IALB    =           0,
 CHGQ0   =           0,
 USE_UFO = F
 /
 CHGRES INPUT:  SPECTRAL SIGIO SIGMA FILE 
 CHGRES OUTPUT: SIGIO SIGMA FILE
  pdryinia=   98.26409    
CHANGE SIGMA FILE RESOLUTION FROM  574 WAVES,   64 LEVELS, AND    3 TRACERS
                                   IVS=198410 IDVC= 2 NVCOORD= 2  IDVM= 0
                               TO  574 WAVES,   64 LEVELS, AND    3 TRACERS.
                                   IVS=198410 IDVC= 2 NVCOORD= 2  IDVM= 0
  USING A GAUSSIAN TRANSFORM GRID OF 1760 X  880
  NEW OROGRAPHY READ IN
  NEW MODEL LEVELS COPIED FROM OLD
 omega time=   111.000000000000     
  sigheado%pdryini2=  0.0000000E+00


     ENDING DATE-TIME    NOV 28,2012  14:15:43.596  333  WEN   2456260
* . * . * . * . * . * . * . * . * . * . * . * . * . * . * . * . * . * . * . * . 
     1     1       0.022       0.022       0.022
     2     1       1.132       1.132       1.132
     3     1       0.036       0.036       0.036