

* . * . * . * . * . * . * . * . * . * . * . * . * . * . * . * . * . * . * . * . 
     PROGRAM GLOBAL_CHGRES HAS BEGUN. COMPILED 1999253.56     ORG: NP23
     STARTING DATE-TIME  NOV 13,2012  14:56:16.093  318  TUE   2456245


 &NAMCHG
 JCAP    =         254,
 LEVS    =           0,
 NTRAC   =           0,
 LONB    =         768,
 LATB    =         384,
 LONBI   =           0,
 LATBI   =           0,
 IDVC    =           0,
 IDVM    =           0,
 IDSL    =           0,
 IGEN    =           0,
 MGG     =           0,
 MQUICK  =           0,
 IDVT    =           0,
 NCLDT   =           0,
 LATCH   =           8,
 LSOIL   =           2,
 IVSSFC  =      200004,
 IVSSIG  =           0,
 NVCOORD =           0,
 OUTTYP  =           2,
 IDRT    =           4,
 RI      = 21*0.000000000000000E+000  ,
 CPI     = 21*0.000000000000000E+000  ,
 IALB    =           0,
 CHGQ0   =           0,
 USE_UFO = F
 /
 CHGRES INPUT:  SPECTRAL SIGIO SIGMA FILE 
 CHGRES OUTPUT: SIGIO SIGMA FILE
  pdryinia=  0.0000000E+00
CHANGE SIGMA FILE RESOLUTION FROM  574 WAVES,   64 LEVELS, AND    3 TRACERS
                                   IVS=198410 IDVC= 2 NVCOORD= 2  IDVM= 0
                               TO  254 WAVES,   64 LEVELS, AND    3 TRACERS.
                                   IVS=198410 IDVC= 2 NVCOORD= 2  IDVM= 0
  USING A GAUSSIAN TRANSFORM GRID OF  768 X  384
  NEW OROGRAPHY TRUNCATED FROM OLD
  NEW MODEL LEVELS COPIED FROM OLD
 omega time=   8.00000000000000     
  sigheado%pdryini2=  0.0000000E+00


     ENDING DATE-TIME    NOV 13,2012  14:56:40.301  318  TUE   2456245
* . * . * . * . * . * . * . * . * . * . * . * . * . * . * . * . * . * . * . * . 
     1     1       0.071       0.071       0.071
     2     1       1.200       1.200       1.200
     3     1       0.003       0.003       0.003
     4     1       0.000       0.000       0.000
     5    24       7.691       0.313       0.387
     6    24       0.001       0.000       0.001
     7    24       9.908       0.410       0.416
     8    24       2.486       0.100       0.110
     9    24       2.654       0.109       0.114
    10     1       0.190       0.190       0.190
    11     0       0.000       0.000       0.000
    12     0       0.000       0.000       0.000
    13     0       0.000       0.000       0.000
    14     0       0.000       0.000       0.000
    15     1       0.001       0.001       0.001
    16     1       0.000       0.000       0.000
    17     0       0.000       0.000       0.000
    18     0       0.000       0.000       0.000
    19     0       0.000       0.000       0.000
    20     0       0.000       0.000       0.000
    21     0       0.000       0.000       0.000
    22     0       0.000       0.000       0.000
    23     0       0.000       0.000       0.000
    24     0       0.000       0.000       0.000
    25     0       0.000       0.000       0.000
    26     0       0.000       0.000       0.000
    27     0       0.000       0.000       0.000
    28     0       0.000       0.000       0.000
    29     0       0.000       0.000       0.000
    30     0       0.000       0.000       0.000
