

* . * . * . * . * . * . * . * . * . * . * . * . * . * . * . * . * . * . * . * . 
     PROGRAM GLOBAL_CHGRES HAS BEGUN. COMPILED 1999253.56     ORG: NP23
     STARTING DATE-TIME  NOV 13,2012  18:02:10.849  318  TUE   2456245


 &NAMCHG
 JCAP    =         574,
 LEVS    =           0,
 NTRAC   =           0,
 LONB    =        1760,
 LATB    =         880,
 LONBI   =           0,
 LATBI   =           0,
 IDVC    =           0,
 IDVM    =           0,
 IDSL    =           0,
 IGEN    =           0,
 MGG     =           0,
 MQUICK  =           0,
 IDVT    =           0,
 NCLDT   =           0,
 LATCH   =           8,
 LSOIL   =           2,
 IVSSFC  =      200004,
 IVSSIG  =           0,
 NVCOORD =           0,
 OUTTYP  =           2,
 IDRT    =           4,
 RI      = 21*0.000000000000000E+000  ,
 CPI     = 21*0.000000000000000E+000  ,
 IALB    =           0,
 CHGQ0   =           0,
 USE_UFO = F
 /
 CHGRES INPUT:  SPECTRAL SIGIO SIGMA FILE 
 CHGRES OUTPUT: SIGIO SIGMA FILE
  pdryinia=   98.26409    
CHANGE SIGMA FILE RESOLUTION FROM  574 WAVES,   64 LEVELS, AND    3 TRACERS
                                   IVS=198410 IDVC= 2 NVCOORD= 2  IDVM= 0
                               TO  574 WAVES,   64 LEVELS, AND    3 TRACERS.
                                   IVS=198410 IDVC= 2 NVCOORD= 2  IDVM= 0
  USING A GAUSSIAN TRANSFORM GRID OF 1760 X  880
  NEW OROGRAPHY READ IN
  NEW MODEL LEVELS COPIED FROM OLD
 omega time=   33.0000000000000     
  sigheado%pdryini2=  0.0000000E+00


     ENDING DATE-TIME    NOV 13,2012  18:04:08.109  318  TUE   2456245
* . * . * . * . * . * . * . * . * . * . * . * . * . * . * . * . * . * . * . * . 
     1     1       0.022       0.022       0.022
     2     1       1.132       1.132       1.132
     3     1       0.046       0.046       0.046
     4     1       0.001       0.001       0.001
     5    55      27.534       0.486       0.824
     6    55       0.018       0.000       0.001
     7    55      44.568       0.800       0.822
     8    55      13.253       0.235       0.255
     9    55      27.842       0.496       0.514
    10     1       2.837       2.837       2.837
    11     0       0.000       0.000       0.000
    12     0       0.000       0.000       0.000
    13     0       0.000       0.000       0.000
    14     0       0.000       0.000       0.000
    15     1       0.000       0.000       0.000
    16     1       0.000       0.000       0.000
    17     0       0.000       0.000       0.000
    18     0       0.000       0.000       0.000
    19     0       0.000       0.000       0.000
    20     0       0.000       0.000       0.000
    21     0       0.000       0.000       0.000
    22     0       0.000       0.000       0.000
    23     0       0.000       0.000       0.000
    24     0       0.000       0.000       0.000
    25     0       0.000       0.000       0.000
    26     0       0.000       0.000       0.000
    27     0       0.000       0.000       0.000
    28     0       0.000       0.000       0.000
    29     0       0.000       0.000       0.000
    30     0       0.000       0.000       0.000
